$# LS-DYNA Keyword file created by LS-PrePost 4.0 (Beta) - 03Nov2012(16:30)
$# Created on Jul-02-2013 (17:06:25)
*KEYWORD  
*TITLE
$# title
                                                                                
$$$$$$$$$$$$$$$$$$$$$$$$$$$$$$$$$$$$$$$$$$$$$$$$$$$$$$$$$$$$$$$$$$$$$$$$$$$$$$$$
$                              COORDINATE SYSTEMS                              $
$$$$$$$$$$$$$$$$$$$$$$$$$$$$$$$$$$$$$$$$$$$$$$$$$$$$$$$$$$$$$$$$$$$$$$$$$$$$$$$$
$$$$$$$$$$$$$$$$$$$$$$$$$$$$$$$$$$$$$$$$$$$$$$$$$$$$$$$$$$$$$$$$$$$$$$$$$$$$$$$$
$                               LOAD DEFINITIONS                               $
$$$$$$$$$$$$$$$$$$$$$$$$$$$$$$$$$$$$$$$$$$$$$$$$$$$$$$$$$$$$$$$$$$$$$$$$$$$$$$$$
$$$$$$$$$$$$$$$$$$$$$$$$$$$$$$$$$$$$$$$$$$$$$$$$$$$$$$$$$$$$$$$$$$$$$$$$$$$$$$$$
$                                RIGID BOUNDRIES                               $
$$$$$$$$$$$$$$$$$$$$$$$$$$$$$$$$$$$$$$$$$$$$$$$$$$$$$$$$$$$$$$$$$$$$$$$$$$$$$$$$
$$$$$$$$$$$$$$$$$$$$$$$$$$$$$$$$$$$$$$$$$$$$$$$$$$$$$$$$$$$$$$$$$$$$$$$$$$$$$$$$
$                              CONTACT DEFINITIONS                             $
$$$$$$$$$$$$$$$$$$$$$$$$$$$$$$$$$$$$$$$$$$$$$$$$$$$$$$$$$$$$$$$$$$$$$$$$$$$$$$$$
$$$$$$$$$$$$$$$$$$$$$$$$$$$$$$$$$$$$$$$$$$$$$$$$$$$$$$$$$$$$$$$$$$$$$$$$$$$$$$$$
$                              CONTROL OPTIONS                                 $
$$$$$$$$$$$$$$$$$$$$$$$$$$$$$$$$$$$$$$$$$$$$$$$$$$$$$$$$$$$$$$$$$$$$$$$$$$$$$$$$
*CONTROL_ENERGY
$#    hgen      rwen    slnten     rylen
         2         2         2         2
*CONTROL_SHELL
$#  wrpang     esort     irnxx    istupd    theory       bwc     miter      proj
 20.000000         1        -1         1         2         2         1         0
$# rotascl    intgrd    lamsht    cstyp6    tshell    nfail1    nfail4   psnfail
  1.000000         0         0         1         0         0         0         0
$# psstupd    irquad     cntco    itsflg    irquad
         0         0         0         0         2
*CONTROL_TERMINATION
$#  endtim    endcyc     dtmin    endeng    endmas
 20.000000         0     0.000     0.000     0.000
*CONTROL_TIMESTEP
$#  dtinit    tssfac      isdo    tslimt     dt2ms      lctm     erode     ms1st
     0.000  0.900000         0     0.000     0.000         0         0         0
$#  dt2msf   dt2mslc     imscl
     0.000         0         0
$$$$$$$$$$$$$$$$$$$$$$$$$$$$$$$$$$$$$$$$$$$$$$$$$$$$$$$$$$$$$$$$$$$$$$$$$$$$$$$$
$                                 TIME HISTORY                                 $
$$$$$$$$$$$$$$$$$$$$$$$$$$$$$$$$$$$$$$$$$$$$$$$$$$$$$$$$$$$$$$$$$$$$$$$$$$$$$$$$
*DATABASE_BINARY_D3PLOT
$#      dt      lcdt      beam     npltc    psetid
  0.200000         0         0         0         0
$#   ioopt
         0
*DATABASE_BINARY_D3THDT
$#      dt      lcdt      beam     npltc    psetid
  0.020000         0         0         0         0
*DATABASE_FORMAT
$#   iform   ibinary
         0         0
$$$$$$$$$$$$$$$$$$$$$$$$$$$$$$$$$$$$$$$$$$$$$$$$$$$$$$$$$$$$$$$$$$$$$$$$$$$$$$$$
$                              DATABASE OPTIONS                                $
$$$$$$$$$$$$$$$$$$$$$$$$$$$$$$$$$$$$$$$$$$$$$$$$$$$$$$$$$$$$$$$$$$$$$$$$$$$$$$$$
*DATABASE_EXTENT_BINARY
$#   neiph     neips    maxint    strflg    sigflg    epsflg    rltflg    engflg
         0         0         3         1         1         1         1         1
$#  cmpflg    ieverp    beamip     dcomp      shge     stssz    n3thdt   ialemat
         0         0         4         1         1         1         2         0
$# nintsld   pkp_sen      sclp    unused     msscl     therm    intout    nodout
         0         0  1.000000         0         0         0STRESS    STRESS
$#    dtdt    resplt
         0         0
$$$$$$$$$$$$$$$$$$$$$$$$$$$$$$$$$$$$$$$$$$$$$$$$$$$$$$$$$$$$$$$$$$$$$$$$$$$$$$$$
$                              PARTS DEFINITIONS                               $
$$$$$$$$$$$$$$$$$$$$$$$$$$$$$$$$$$$$$$$$$$$$$$$$$$$$$$$$$$$$$$$$$$$$$$$$$$$$$$$$
*PART
$# title
Part          1 for Mat         1 and Elem Type         1
$#     pid     secid       mid     eosid      hgid      grav    adpopt      tmid
         1         1         1         0         0         0         0         0
$$$$$$$$$$$$$$$$$$$$$$$$$$$$$$$$$$$$$$$$$$$$$$$$$$$$$$$$$$$$$$$$$$$$$$$$$$$$$$$$
$                             SECTION DEFINITIONS                              $
$$$$$$$$$$$$$$$$$$$$$$$$$$$$$$$$$$$$$$$$$$$$$$$$$$$$$$$$$$$$$$$$$$$$$$$$$$$$$$$$
*SECTION_SHELL
$#   secid    elform      shrf       nip     propt   qr/irid     icomp     setyp
         1        12  1.000000         1         1         0         0         1
$#      t1        t2        t3        t4      nloc     marea      idof    edgset
     0.000     0.000     0.000     0.000     0.000     0.000     0.000         0
$$$$$$$$$$$$$$$$$$$$$$$$$$$$$$$$$$$$$$$$$$$$$$$$$$$$$$$$$$$$$$$$$$$$$$$$$$$$$$$$
$                             MATERIAL DEFINITIONS                             $
$$$$$$$$$$$$$$$$$$$$$$$$$$$$$$$$$$$$$$$$$$$$$$$$$$$$$$$$$$$$$$$$$$$$$$$$$$$$$$$$
*MAT_ELASTIC
$#     mid        ro         e        pr        da        db  not used
         1  7.800000 2.0600E+7  0.400000     0.000     0.000         0
*PART
$# title
Part          2 for Mat         2 and Elem Type         1
$#     pid     secid       mid     eosid      hgid      grav    adpopt      tmid
         2         1         2         0         0         0         0         0
*MAT_ELASTIC
$#     mid        ro         e        pr        da        db  not used
         2  5.600000 7.0000E+6  0.300000     0.000     0.000         0
*SET_SEGMENT
$#     sid       da1       da2       da3       da4    solver
         1     0.000     0.000     0.000     0.000MECH
$#      n1        n2        n3        n4        a1        a2        a3        a4
       120         1         1         1     0.000     0.000     0.000     0.000
        62       112       112       112     0.000     0.000     0.000     0.000
       112       113       113       113     0.000     0.000     0.000     0.000
       113       114       114       114     0.000     0.000     0.000     0.000
       114       115       115       115     0.000     0.000     0.000     0.000
       115       116       116       116     0.000     0.000     0.000     0.000
       116       117       117       117     0.000     0.000     0.000     0.000
       117       118       118       118     0.000     0.000     0.000     0.000
       118       119       119       119     0.000     0.000     0.000     0.000
       119       120       120       120     0.000     0.000     0.000     0.000
$$$$$$$$$$$$$$$$$$$$$$$$$$$$$$$$$$$$$$$$$$$$$$$$$$$$$$$$$$$$$$$$$$$$$$$$$$$$$$$$
$                             ELEMENT DEFINITIONS                              $
$$$$$$$$$$$$$$$$$$$$$$$$$$$$$$$$$$$$$$$$$$$$$$$$$$$$$$$$$$$$$$$$$$$$$$$$$$$$$$$$
*ELEMENT_SHELL
$#   eid     pid      n1      n2      n3      n4      n5      n6      n7      n8
       1       1       1       3     121     120       0       0       0       0
       2       1       3       4     130     121       0       0       0       0
       3       1       4       5     139     130       0       0       0       0
       4       1       5       6     148     139       0       0       0       0
       5       1       6       7     157     148       0       0       0       0
       6       1       7       8     166     157       0       0       0       0
       7       1       8       9     175     166       0       0       0       0
       8       1       9      10     184     175       0       0       0       0
       9       1      10      11     193     184       0       0       0       0
      10       1      11      12     202     193       0       0       0       0
      11       1      12      13     211     202       0       0       0       0
      12       1      13      14     220     211       0       0       0       0
      13       1      14      15     229     220       0       0       0       0
      14       1      15      16     238     229       0       0       0       0
      15       1      16      17     247     238       0       0       0       0
      16       1      17      18     256     247       0       0       0       0
      17       1      18      19     265     256       0       0       0       0
      18       1      19      20     274     265       0       0       0       0
      19       1      20      21     283     274       0       0       0       0
      20       1      21      22     292     283       0       0       0       0
$ ... 480 like lines cut
$$$$$$$$$$$$$$$$$$$$$$$$$$$$$$$$$$$$$$$$$$$$$$$$$$$$$$$$$$$$$$$$$$$$$$$$$$$$$$$$
$                               NODE DEFINITIONS                               $
$$$$$$$$$$$$$$$$$$$$$$$$$$$$$$$$$$$$$$$$$$$$$$$$$$$$$$$$$$$$$$$$$$$$$$$$$$$$$$$$
*NODE
$#   nid               x               y               z      tc      rc
       1           0.000           0.000           0.000       0       0
       2       10.000000           0.000           0.000       0       0
       3        0.200000           0.000           0.000       0       0
       4        0.400000           0.000           0.000       0       0
       5        0.600000           0.000           0.000       0       0
       6        0.800000           0.000           0.000       0       0
       7        1.000000           0.000           0.000       0       0
       8        1.200000           0.000           0.000       0       0
       9        1.400000           0.000           0.000       0       0
      10        1.600000           0.000           0.000       0       0
      11        1.800000           0.000           0.000       0       0
      12        2.000000           0.000           0.000       0       0
      13        2.200000           0.000           0.000       0       0
      14        2.400000           0.000           0.000       0       0
      15        2.600000           0.000           0.000       0       0
      16        2.800000           0.000           0.000       0       0
      17        3.000000           0.000           0.000       0       0
      18        3.200000           0.000           0.000       0       0
      19        3.400000           0.000           0.000       0       0
      20        3.600000           0.000           0.000       0       0
$ ... 541 like lines cut
*END
