*KEYWORD
*TITLE
                                                                                
$
*DATABASE_FORMAT
         0
$
$
$$$$$$$$$$$$$$$$$$$$$$$$$$$$$$$$$$$$$$$$$$$$$$$$$$$$$$$$$$$$$$$$$$$$$$$$$$$$$$$$
$                               NODE DEFINITIONS                               $
$$$$$$$$$$$$$$$$$$$$$$$$$$$$$$$$$$$$$$$$$$$$$$$$$$$$$$$$$$$$$$$$$$$$$$$$$$$$$$$$
$
*NODE
       1 0.000000000E+00 2.000000000E+00 0.000000000E+00       0       0
       2 0.000000000E+00 0.000000000E+00 0.000000000E+00       0       0
       3 0.000000000E+00 1.800000000E+00 0.000000000E+00       0       0
       4 0.000000000E+00 1.600000000E+00 0.000000000E+00       0       0
       5 0.000000000E+00 1.400000000E+00 0.000000000E+00       0       0
       6 0.000000000E+00 1.200000000E+00 0.000000000E+00       0       0
       7 0.000000000E+00 1.000000000E+00 0.000000000E+00       0       0
       8 0.000000000E+00 8.000000000E-01 0.000000000E+00       0       0
       9 0.000000000E+00 6.000000000E-01 0.000000000E+00       0       0
      10 0.000000000E+00 4.000000000E-01 0.000000000E+00       0       0
      11 0.000000000E+00 2.000000000E-01 0.000000000E+00       0       0
      12 1.000000000E+01 2.000000000E+00 0.000000000E+00       0       0
      13 9.800000000E+00 2.000000000E+00 0.000000000E+00       0       0
      14 9.600000000E+00 2.000000000E+00 0.000000000E+00       0       0
      15 9.400000000E+00 2.000000000E+00 0.000000000E+00       0       0
      16 9.200000000E+00 2.000000000E+00 0.000000000E+00       0       0
      17 9.000000000E+00 2.000000000E+00 0.000000000E+00       0       0
      18 8.800000000E+00 2.000000000E+00 0.000000000E+00       0       0
      19 8.600000000E+00 2.000000000E+00 0.000000000E+00       0       0
      20 8.400000000E+00 2.000000000E+00 0.000000000E+00       0       0
$ ... 1663 like lines cut
$
$
$$$$$$$$$$$$$$$$$$$$$$$$$$$$$$$$$$$$$$$$$$$$$$$$$$$$$$$$$$$$$$$$$$$$$$$$$$$$$$$$
$                             SECTION DEFINITIONS                              $
$$$$$$$$$$$$$$$$$$$$$$$$$$$$$$$$$$$$$$$$$$$$$$$$$$$$$$$$$$$$$$$$$$$$$$$$$$$$$$$$
$
*SECTION_SOLID
         1         1
$
$
$$$$$$$$$$$$$$$$$$$$$$$$$$$$$$$$$$$$$$$$$$$$$$$$$$$$$$$$$$$$$$$$$$$$$$$$$$$$$$$$
$                             MATERIAL DEFINITIONS                             $
$$$$$$$$$$$$$$$$$$$$$$$$$$$$$$$$$$$$$$$$$$$$$$$$$$$$$$$$$$$$$$$$$$$$$$$$$$$$$$$$
$
*MAT_ELASTIC
         1  7.80     0.206E+08  0.400000       0.0       0.0       0.0
*MAT_ELASTIC
         2  5.60     0.700E+07  0.300000       0.0       0.0       0.0
$
$
$
$$$$$$$$$$$$$$$$$$$$$$$$$$$$$$$$$$$$$$$$$$$$$$$$$$$$$$$$$$$$$$$$$$$$$$$$$$$$$$$$
$                              PARTS DEFINITIONS                               $
$$$$$$$$$$$$$$$$$$$$$$$$$$$$$$$$$$$$$$$$$$$$$$$$$$$$$$$$$$$$$$$$$$$$$$$$$$$$$$$$
$
$
*PART
Part          1 for Mat         1 and Elem Type         1
         1         1         1         0         0         0         0
$
*PART
Part          2 for Mat         2 and Elem Type         1
         2         1         2         0         0         0         0
$
$
$$$$$$$$$$$$$$$$$$$$$$$$$$$$$$$$$$$$$$$$$$$$$$$$$$$$$$$$$$$$$$$$$$$$$$$$$$$$$$$$
$                             ELEMENT DEFINITIONS                              $
$$$$$$$$$$$$$$$$$$$$$$$$$$$$$$$$$$$$$$$$$$$$$$$$$$$$$$$$$$$$$$$$$$$$$$$$$$$$$$$$
$
*ELEMENT_SOLID
       1       1       2      72     121      11    1123    1125    1243    1225
       2       1      72      73     122     121    1125    1126    1252    1243
       3       1      73      74     123     122    1126    1127    1261    1252
       4       1      74      75     124     123    1127    1128    1270    1261
       5       1      75      76     125     124    1128    1129    1279    1270
       6       1      76      77     126     125    1129    1130    1288    1279
       7       1      77      78     127     126    1130    1131    1297    1288
       8       1      78      79     128     127    1131    1132    1306    1297
       9       1      79      80     129     128    1132    1133    1315    1306
      10       1      80      81     130     129    1133    1134    1324    1315
      11       1      81      82     131     130    1134    1135    1333    1324
      12       1      82      83     132     131    1135    1136    1342    1333
      13       1      83      84     133     132    1136    1137    1351    1342
      14       1      84      85     134     133    1137    1138    1360    1351
      15       1      85      86     135     134    1138    1139    1369    1360
      16       1      86      87     136     135    1139    1140    1378    1369
      17       1      87      88     137     136    1140    1141    1387    1378
      18       1      88      89     138     137    1141    1142    1396    1387
      19       1      89      90     139     138    1142    1143    1405    1396
      20       1      90      91     140     139    1143    1144    1414    1405
$ ... 980 like lines cut
$
$
$$$$$$$$$$$$$$$$$$$$$$$$$$$$$$$$$$$$$$$$$$$$$$$$$$$$$$$$$$$$$$$$$$$$$$$$$$$$$$$$
$                              COORDINATE SYSTEMS                              $
$$$$$$$$$$$$$$$$$$$$$$$$$$$$$$$$$$$$$$$$$$$$$$$$$$$$$$$$$$$$$$$$$$$$$$$$$$$$$$$$
$
$
$
$$$$$$$$$$$$$$$$$$$$$$$$$$$$$$$$$$$$$$$$$$$$$$$$$$$$$$$$$$$$$$$$$$$$$$$$$$$$$$$$
$                               LOAD DEFINITIONS                               $
$$$$$$$$$$$$$$$$$$$$$$$$$$$$$$$$$$$$$$$$$$$$$$$$$$$$$$$$$$$$$$$$$$$$$$$$$$$$$$$$
$
$
$
$$$$$$$$$$$$$$$$$$$$$$$$$$$$$$$$$$$$$$$$$$$$$$$$$$$$$$$$$$$$$$$$$$$$$$$$$$$$$$$$
$                                RIGID BOUNDRIES                               $
$$$$$$$$$$$$$$$$$$$$$$$$$$$$$$$$$$$$$$$$$$$$$$$$$$$$$$$$$$$$$$$$$$$$$$$$$$$$$$$$
$
$
$
$$$$$$$$$$$$$$$$$$$$$$$$$$$$$$$$$$$$$$$$$$$$$$$$$$$$$$$$$$$$$$$$$$$$$$$$$$$$$$$$
$                              CONTACT DEFINITIONS                             $
$$$$$$$$$$$$$$$$$$$$$$$$$$$$$$$$$$$$$$$$$$$$$$$$$$$$$$$$$$$$$$$$$$$$$$$$$$$$$$$$
$
*SET_SEGMENT
         1     0.000     0.000     0.000     0.000
        11         2      1123      1225     0.000     0.000     0.000     0.000
        10        11      1225      1226     0.000     0.000     0.000     0.000
         9        10      1226      1227     0.000     0.000     0.000     0.000
         8         9      1227      1228     0.000     0.000     0.000     0.000
         7         8      1228      1229     0.000     0.000     0.000     0.000
         6         7      1229      1230     0.000     0.000     0.000     0.000
         5         6      1230      1231     0.000     0.000     0.000     0.000
         4         5      1231      1232     0.000     0.000     0.000     0.000
         3         4      1232      1233     0.000     0.000     0.000     0.000
         1         3      1233      1175     0.000     0.000     0.000     0.000
      1225      1123       562       681     0.000     0.000     0.000     0.000
      1226      1225       681       680     0.000     0.000     0.000     0.000
      1227      1226       680       679     0.000     0.000     0.000     0.000
      1228      1227       679       678     0.000     0.000     0.000     0.000
      1229      1228       678       677     0.000     0.000     0.000     0.000
      1230      1229       677       676     0.000     0.000     0.000     0.000
      1231      1230       676       675     0.000     0.000     0.000     0.000
      1232      1231       675       674     0.000     0.000     0.000     0.000
      1233      1232       674       673     0.000     0.000     0.000     0.000
      1175      1233       673       623     0.000     0.000     0.000     0.000
$*CONTACT_NODES_TO_SURFACE
$         2         1         3         0         0         0         0         0
$ 0.000     0.000     0.000     0.000     0.000             0 0.000    0.1000E+08
$ 1.000     1.000     0.000     0.000     1.000     1.000     1.000     1.000    
*SET_NODE_LIST
         1     0.000     0.000     0.000     0.000
         1         2         3         4         5         6         7         8
         9        10        11       562       623       673       674       675
       676       677       678       679       680       681      1123      1175
      1225      1226      1227      1228      1229      1230      1231      1232
      1233
$*CONTACT_NODES_TO_SURFACE
$         1         2         4         3         0         0         0         0
$ 0.000     0.000     0.000     0.000     0.000             0 0.000    0.1000E+08
$ 1.000     1.000     0.000     0.000     1.000     1.000     1.000     1.000    
$
$$$$$$$$$$$$$$$$$$$$$$$$$$$$$$$$$$$$$$$$$$$$$$$$$$$$$$$$$$$$$$$$$$$$$$$$$$$$$$$$
$                              CONTROL OPTIONS                                 $
$$$$$$$$$$$$$$$$$$$$$$$$$$$$$$$$$$$$$$$$$$$$$$$$$$$$$$$$$$$$$$$$$$$$$$$$$$$$$$$$
$
*CONTROL_ENERGY
         2         2         2         2
*CONTROL_SHELL
  20.0             1        -1         1         2         2         1
*CONTROL_TIMESTEP
    0.0000    0.9000         0  0.00      0.00    
*CONTROL_TERMINATION
  20.0             0   0.00000   0.00000   0.00000
$
$$$$$$$$$$$$$$$$$$$$$$$$$$$$$$$$$$$$$$$$$$$$$$$$$$$$$$$$$$$$$$$$$$$$$$$$$$$$$$$$
$                                 TIME HISTORY                                 $
$$$$$$$$$$$$$$$$$$$$$$$$$$$$$$$$$$$$$$$$$$$$$$$$$$$$$$$$$$$$$$$$$$$$$$$$$$$$$$$$
$
*DATABASE_BINARY_D3PLOT
0.2000    
*DATABASE_BINARY_D3THDT
0.2000E-01
$
$$$$$$$$$$$$$$$$$$$$$$$$$$$$$$$$$$$$$$$$$$$$$$$$$$$$$$$$$$$$$$$$$$$$$$$$$$$$$$$$
$                              DATABASE OPTIONS                                $
$$$$$$$$$$$$$$$$$$$$$$$$$$$$$$$$$$$$$$$$$$$$$$$$$$$$$$$$$$$$$$$$$$$$$$$$$$$$$$$$
$
*DATABASE_EXTENT_BINARY
         0         0         3         1         0         0         0         0
         0         0         4         0         0         0
$
$$$$$$$$$$$$$$$$$$$$$$$$$$$$$$$$$$$$$$$$$$$$$$$$$$$$$$$$$$$$$$$$$$$$$$$$$$$$$$$$
$                         INITIAL VELOCITY DEFINITIONS                         $
$$$$$$$$$$$$$$$$$$$$$$$$$$$$$$$$$$$$$$$$$$$$$$$$$$$$$$$$$$$$$$$$$$$$$$$$$$$$$$$$
$
*SET_NODE_LIST
         2     0.000     0.000     0.000     0.000
        12        13        14        15        16        17        18        19
        20        21        22        23        24        25        26        27
        28        29        30        31        32        33        34        35
        36        37        62        63        64        65        66        67
        68        69        70        71        96        97        98        99
       100       101       102       103       104       105       106       107
       108       109       110       111       112       113       114       115
       116       117       118       119       120       145       146       147
       148       149       150       151       152       153       154       155
       156       157       158       159       160       161       162       163
       164       165       166       167       168       169       194       195
       196       197       198       199       200       201       202       203
       204       205       206       207       208       209       210       211
       212       213       214       215       216       217       218       243
       244       245       246       247       248       249       250       251
       252       253       254       255       256       257       258       259
       260       261       262       263       264       265       266       267
       292       293       294       295       296       297       298       299
       300       301       302       303       304       305       306       307
$ ... 89 like lines cut
*INITIAL_VELOCITY
         2         0         0
-.2000E-01 0.000     0.000     0.000     0.000     0.000    
*END
